[TITLE]
Reservoir-Pump-Tank Network System

[JUNCTIONS]
;ID              	Elev        	Demand      	Pattern         
 J1              	0           	0           	                	;
 J2              	0           	50          	DAILY           	;

[RESERVOIRS]
;ID              	Head        	Pattern         
 RES             	100         	                	;

[TANKS]
;ID              	Elevation   	InitLevel   	MinLevel    	MaxLevel    	Diameter    	MinVol      	VolCurve
 TANK            	100         	5           	2           	15          	5          	0           	        	;

[PIPES]
;ID              	Node1           	Node2           	Length      	Diameter    	Roughness   	MinorLoss   	Status
 P1              	J1              	TANK            	1000        	12          	100         	0           	Open  	;
 P2              	J1              	J2              	1000        	12          	100         	0           	Open  	;

[PUMPS]
;ID              	Node1           	Node2           	Parameters
 PUMP1           	RES             	J1              	HEAD 1	;

[VALVES]
;ID              	Node1           	Node2           	Diameter    	Type	Setting     	MinorLoss   

[TAGS]

[DEMANDS]
;Junction        	Demand      	Pattern         	Category

[STATUS]
;ID              	Status/Setting

[PATTERNS]
;ID              	Multipliers
;Daily demand pattern with morning and evening peaks
 DAILY           	0.4         	0.3         	0.3         	0.3         	0.4         	0.6         
 DAILY           	1.2         	2.8         	3.0         	2.2         	1.8         	1.6         
 DAILY           	1.4         	1.2         	1.0         	1.2         	1.4         	2.0         
 DAILY           	2.4         	2.0         	1.6         	1.2         	1.0         	0.8         

[CURVES]
;ID              	X-Value     	Y-Value
;PUMP: 
 1               	0           	133         
 1               	200         	100         
 1               	400         	2           

[CONTROLS]

[RULES]

[ENERGY]
 Global Efficiency  	75
 Global Price       	0
 Demand Charge      	0

[EMITTERS]
;Junction        	Coefficient

[QUALITY]
;Node            	InitQual

[SOURCES]
;Node            	Type        	Quality     	Pattern

[REACTIONS]
;Type     	Pipe/Tank       	Coefficient

[REACTIONS]
 Order Bulk            	1
 Order Tank            	1
 Order Wall            	1
 Global Bulk           	0
 Global Wall           	0
 Limiting Potential    	0
 Roughness Correlation 	0

[MIXING]
;Tank            	Model

[TIMES]
 Duration           	24:00
 Hydraulic Timestep 	1:00
 Quality Timestep   	0:05
 Pattern Timestep   	1:00
 Pattern Start      	0:00
 Report Timestep    	1:00
 Report Start       	0:00
 Start ClockTime    	12 am
 Statistic          	None

[REPORT]
 Status             	No
 Summary            	No
 Page               	0

[OPTIONS]
 Units              	GPM
 Headloss           	H-W
 Specific Gravity   	1
 Viscosity          	1
 Trials             	40
 Accuracy           	0.001
 CHECKFREQ          	2
 MAXCHECK           	10
 DAMPLIMIT          	0
 Unbalanced         	Continue 10
 Pattern            	1
 Demand Multiplier  	1.0
 Emitter Exponent   	0.5
 Quality            	None mg/L
 Diffusivity        	1
 Tolerance          	0.01

[COORDINATES]
;Node            	X-Coord         	Y-Coord
 RES             	1000.00         	5000.00         
 J1              	3000.00         	5000.00         
 J2              	5000.00         	3000.00         
 TANK            	5000.00         	7000.00         

[VERTICES]
;Link            	X-Coord         	Y-Coord

[LABELS]
;X-Coord           Y-Coord          Label & Anchor Node

[BACKDROP]
 DIMENSIONS     	0.00            	0.00            	10000.00        	10000.00        
 UNITS          	None
 FILE           	
 OFFSET         	0.00            	0.00            

[END]