[TITLE]
Sopron network

[JUNCTIONS]
;ID              	Elev        	Demand      	Pattern         
 6               	0           	0           	                	;
 7               	0           	0           	                	;
 8               	0           	0           	                	;
 9               	0           	1000          D4              	;
 10              	0           	1000          D5              	;
 11              	0           	1000          D6              	;
 12              	0           	1000          D7              	;
 13              	0           	1000          D8              	;

[RESERVOIRS]
;ID              	Head        	Pattern         
 1               	0           	                	;
 2               	0           	                	;
 3               	0           	                	;
 4               	0           	                	;
 5               	0           	                	;

[TANKS]
;ID              	Elevation   	InitLevel   	MinLevel    	MaxLevel    	Diameter    	MinVol      	VolCurve        	Overflow
 14              	0           	4.97836662  	2.546479089 	6.366197724 	10          	0           	                	;"delta": 50
 15              	0           	6.340732933 	0           	12.73239545 	10          	0           	                	;
 16              	0           	15.60991682 	12.83425461 	25.46479089 	10          	0           	                	;
 17              	0           	17.44338176 	12.52358416 	24.21192318 	10          	0           	                	;
 18              	0           	28.13859394 	22.71459348 	47.95020125 	10          	0           	                	;
 19              	0           	48.16665198 	31.83098862 	63.02535746 	10          	0           	                	;
 20              	0           	17.12507188 	11.84112777 	27.14546709 	10          	0           	                	;
 21              	0           	12.5923391  	7.902997854 	15.01149423 	10          	0           	                	;

[PIPES]
;ID              	Node1           	Node2           	Length      	Diameter    	Roughness   	MinorLoss   	Status
 12              	19              	11              	1000        	12          	100         	0           	Open  	;
 13              	18              	10              	1000        	12          	100         	0           	Open  	;
 14              	20              	12              	1000        	12          	100         	0           	Open  	;
 15              	21              	13              	1000        	12          	100         	0           	Open  	;
 16              	17              	9               	1000        	12          	100         	0           	Open  	;
 17              	4               	9               	1000        	12          	100         	0           	Open  	;
 18              	16              	8               	1000        	12          	100         	0           	Open  	;
 19              	15              	7               	1000        	12          	100         	0           	Open  	;
 20              	14              	6               	1000        	12          	100         	0           	Open  	;
 1               	3               	8               	1000        	12          	100         	0           	Open  	;
 2               	2               	7               	1000        	12          	100         	0           	Open  	;
 3               	1               	6               	1000        	12          	100         	0           	Open  	;

[PUMPS]
;ID              	Node1           	Node2           	Parameters
 4               	6               	9               	HEAD 1	;
 5               	7               	9               	HEAD 1	;
 6               	8               	9               	HEAD 1	;
 7               	9               	10              	HEAD 1	;
 8               	10              	11              	HEAD 1	;
 9               	10              	12              	HEAD 1	;
 10              	10              	13              	HEAD 1	;
 11              	5               	13              	HEAD 1	;

[VALVES]
;ID              	Node1           	Node2           	Diameter    	Type	Setting     	MinorLoss   

[TAGS]

[DEMANDS]
;Junction        	Demand      	Pattern         	Category

[STATUS]
;ID              	Status/Setting

[PATTERNS]
;ID              	Multipliers
 D4              	31.0        	30.2        	9.6         	17.7        	47.0        	23.6        
 D4              	38.3        	51.1        	71.3        	49.7        	52.6        	61.4        
 D4              	62.1        	71.0        	42.9        	41.7        	42.4        	86.5        
 D4              	55.8        	63.2        	54.8        	50.0        	26.5        	42.8        
;
 D5              	126.8       	154.7       	102.0       	127.1       	155.1       	135.3       
 D5              	229.5       	336.3       	415.2       	434.7       	416.5       	408.1       
 D5              	384.8       	370.4       	339.5       	311.3       	312.2       	330.0       
 D5              	356.4       	412.2       	382.7       	329.3       	245.7       	196.9       
;
 D6              	136.1       	164.2       	70.7        	82.9        	65.3        	138.9       
 D6              	217.5       	141.5       	139.5       	129.9       	127.0       	104.3       
 D6              	76.5        	122.7       	104.0       	156.7       	141.4       	78.2        
 D6              	121.1       	110.5       	101.6       	112.8       	137.2       	49.8        
;
 D7              	34.0        	26.1        	23.2        	26.3        	17.3        	32.9        
 D7              	55.1        	68.2        	64.2        	63.3        	56.1        	63.3        
 D7              	54.0        	48.5        	51.5        	54.2        	61.5        	64.4        
 D7              	62.1        	70.4        	67.1        	53.4        	34.8        	32.3        
;
 D8              	30.9        	23.5        	19.1        	20.0        	25.1        	32.3        
 D8              	51.3        	77.5        	117.3       	132.9       	126.6       	117.5       
 D8              	109.7       	99.4        	89.0        	80.3        	86.8        	83.5        
 D8              	95.7        	106.2       	100.8       	90.3        	69.0        	45.3        

[CURVES]
;ID              	X-Value     	Y-Value
;PUMP: PUMP: 
 1               	0           	133         
 1               	200         	100         
 1               	400         	2           

[CONTROLS]




[RULES]




[ENERGY]
 Global Efficiency  	75
 Global Price       	0
 Demand Charge      	0

[EMITTERS]
;Junction        	Coefficient

[QUALITY]
;Node            	InitQual

[SOURCES]
;Node            	Type        	Quality     	Pattern

[REACTIONS]
;Type     	Pipe/Tank       	Coefficient


[REACTIONS]
 Order Bulk            	1
 Order Tank            	1
 Order Wall            	1
 Global Bulk           	0
 Global Wall           	0
 Limiting Potential    	0
 Roughness Correlation 	0

[MIXING]
;Tank            	Model

[TIMES]
 Duration           	0:00 
 Hydraulic Timestep 	1:00 
 Quality Timestep   	0:05 
 Pattern Timestep   	1:00 
 Pattern Start      	0:00 
 Report Timestep    	1:00 
 Report Start       	0:00 
 Start ClockTime    	12 am
 Statistic          	NONE

[REPORT]
 Status             	No
 Summary            	No
 Page               	0

[OPTIONS]
 Units              	LPS
 Headloss           	H-W
 Specific Gravity   	1
 Viscosity          	1
 Trials             	40
 Accuracy           	0.001
 CHECKFREQ          	2
 MAXCHECK           	10
 DAMPLIMIT          	0
 Unbalanced         	Continue 10
 Pattern            	1
 Demand Multiplier  	1.0
 Emitter Exponent   	0.5
 Quality            	None mg/L
 Diffusivity        	1
 Tolerance          	0.01

[COORDINATES]
;Node            	X-Coord           	Y-Coord
6               	6000.000          	2500.000          
7               	6000.000          	3800.000          
8               	6000.000          	5000.000          
9               	4000.000          	5500.000          
10              	5000.000          	8000.000          
11              	3500.000          	8000.000          
12              	6500.000          	8000.000          
13              	6500.000          	6500.000          
1               	8000.000          	2500.000          
2               	8000.000          	3800.000          
3               	8000.000          	5000.000          
4               	2500.000          	5500.000          
5               	8000.000          	6500.000          
14              	6000.000          	3400.000          
15              	6000.000          	4500.000          
16              	6000.000          	6000.000          
17              	4000.000          	6500.000          
18              	5000.000          	9000.000          
19              	3500.000          	9000.000          
20              	6500.000          	9000.000          
21              	6500.000          	7500.000          

[VERTICES]
;Link            	X-Coord           	Y-Coord
4               	4000.000          	2500.000          
5               	4000.000          	3800.000          
6               	4000.000          	5000.000          
7               	5000.000          	5500.000          
10              	5500.000          	6500.000          

[LABELS]
;X-Coord             Y-Coord             Label & Anchor Node

[BACKDROP]
  DIMENSIONS  	0.000             	0.000             	10000.000         	10000.000         
 UNITS          	None
 FILE           	
 OFFSET         	0.00            	0.00            

[END]
